<routes>
            <vType accel="1.0" decel="4.5" id="standard_car" length="5.0" minGap="2.5" maxSpeed="25" sigma="0.5" />

            <route id="W_N" edges="W2TL TL2N"/>
            <route id="W_E" edges="W2TL TL2E"/>
            <route id="W_S" edges="W2TL TL2S"/>
            <route id="N_W" edges="N2TL TL2W"/>
            <route id="N_E" edges="N2TL TL2E"/>
            <route id="N_S" edges="N2TL TL2S"/>
            <route id="E_W" edges="E2TL TL2W"/>
            <route id="E_N" edges="E2TL TL2N"/>
            <route id="E_S" edges="E2TL TL2S"/>
            <route id="S_W" edges="S2TL TL2W"/>
            <route id="S_N" edges="S2TL TL2N"/>
            <route id="S_E" edges="S2TL TL2E"/>
    <vehicle id="E_W_0" type="standard_car" route="E_W" depart="40.0" departLane="free" departSpeed="10" />
    <vehicle id="S_N_1" type="standard_car" route="S_N" depart="58.0" departLane="free" departSpeed="10" />
    <vehicle id="W_E_2" type="standard_car" route="W_E" depart="63.0" departLane="free" departSpeed="10" />
    <vehicle id="E_W_3" type="standard_car" route="E_W" depart="96.0" departLane="free" departSpeed="10" />
    <vehicle id="S_N_4" type="standard_car" route="S_N" depart="101.0" departLane="free" departSpeed="10" />
    <vehicle id="W_E_5" type="standard_car" route="W_E" depart="109.0" departLane="free" departSpeed="10" />
    <vehicle id="S_N_6" type="standard_car" route="S_N" depart="126.0" departLane="free" departSpeed="10" />
    <vehicle id="S_N_7" type="standard_car" route="S_N" depart="130.0" departLane="free" departSpeed="10" />
    <vehicle id="E_W_8" type="standard_car" route="E_W" depart="137.0" departLane="free" departSpeed="10" />
    <vehicle id="E_N_9" type="standard_car" route="E_N" depart="142.0" departLane="free" departSpeed="10" />
    <vehicle id="S_N_10" type="standard_car" route="S_N" depart="142.0" departLane="free" departSpeed="10" />
    <vehicle id="E_W_11" type="standard_car" route="E_W" depart="146.0" departLane="free" departSpeed="10" />
    <vehicle id="N_E_12" type="standard_car" route="N_E" depart="147.0" departLane="free" departSpeed="10" />
    <vehicle id="W_E_13" type="standard_car" route="W_E" depart="147.0" departLane="free" departSpeed="10" />
    <vehicle id="E_W_14" type="standard_car" route="E_W" depart="148.0" departLane="free" departSpeed="10" />
    <vehicle id="S_N_15" type="standard_car" route="S_N" depart="148.0" departLane="free" departSpeed="10" />
    <vehicle id="W_E_16" type="standard_car" route="W_E" depart="158.0" departLane="free" departSpeed="10" />
    <vehicle id="E_W_17" type="standard_car" route="E_W" depart="166.0" departLane="free" departSpeed="10" />
    <vehicle id="N_S_18" type="standard_car" route="N_S" depart="177.0" departLane="free" departSpeed="10" />
    <vehicle id="E_S_19" type="standard_car" route="E_S" depart="181.0" departLane="free" departSpeed="10" />
    <vehicle id="N_W_20" type="standard_car" route="N_W" depart="181.0" departLane="free" departSpeed="10" />
    <vehicle id="N_S_21" type="standard_car" route="N_S" depart="186.0" departLane="free" departSpeed="10" />
    <vehicle id="N_S_22" type="standard_car" route="N_S" depart="190.0" departLane="free" departSpeed="10" />
    <vehicle id="N_S_23" type="standard_car" route="N_S" depart="190.0" departLane="free" departSpeed="10" />
    <vehicle id="W_E_24" type="standard_car" route="W_E" depart="196.0" departLane="free" departSpeed="10" />
    <vehicle id="N_S_25" type="standard_car" route="N_S" depart="196.0" departLane="free" departSpeed="10" />
    <vehicle id="N_W_26" type="standard_car" route="N_W" depart="216.0" departLane="free" departSpeed="10" />
    <vehicle id="E_W_27" type="standard_car" route="E_W" depart="218.0" departLane="free" departSpeed="10" />
    <vehicle id="E_S_28" type="standard_car" route="E_S" depart="220.0" departLane="free" departSpeed="10" />
    <vehicle id="N_S_29" type="standard_car" route="N_S" depart="222.0" departLane="free" departSpeed="10" />
    <vehicle id="E_N_30" type="standard_car" route="E_N" depart="226.0" departLane="free" departSpeed="10" />
    <vehicle id="N_S_31" type="standard_car" route="N_S" depart="228.0" departLane="free" departSpeed="10" />
    <vehicle id="W_S_32" type="standard_car" route="W_S" depart="231.0" departLane="free" departSpeed="10" />
    <vehicle id="E_W_33" type="standard_car" route="E_W" depart="233.0" departLane="free" departSpeed="10" />
    <vehicle id="S_N_34" type="standard_car" route="S_N" depart="234.0" departLane="free" departSpeed="10" />
    <vehicle id="S_N_35" type="standard_car" route="S_N" depart="234.0" departLane="free" departSpeed="10" />
    <vehicle id="W_E_36" type="standard_car" route="W_E" depart="235.0" departLane="free" departSpeed="10" />
    <vehicle id="N_E_37" type="standard_car" route="N_E" depart="238.0" departLane="free" departSpeed="10" />
    <vehicle id="S_N_38" type="standard_car" route="S_N" depart="242.0" departLane="free" departSpeed="10" />
    <vehicle id="W_E_39" type="standard_car" route="W_E" depart="242.0" departLane="free" departSpeed="10" />
    <vehicle id="S_N_40" type="standard_car" route="S_N" depart="252.0" departLane="free" departSpeed="10" />
    <vehicle id="E_W_41" type="standard_car" route="E_W" depart="259.0" departLane="free" departSpeed="10" />
    <vehicle id="N_E_42" type="standard_car" route="N_E" depart="263.0" departLane="free" departSpeed="10" />
    <vehicle id="N_S_43" type="standard_car" route="N_S" depart="263.0" departLane="free" departSpeed="10" />
    <vehicle id="N_E_44" type="standard_car" route="N_E" depart="268.0" departLane="free" departSpeed="10" />
    <vehicle id="S_N_45" type="standard_car" route="S_N" depart="275.0" departLane="free" departSpeed="10" />
    <vehicle id="N_S_46" type="standard_car" route="N_S" depart="278.0" departLane="free" departSpeed="10" />
    <vehicle id="N_S_47" type="standard_car" route="N_S" depart="279.0" departLane="free" departSpeed="10" />
    <vehicle id="W_E_48" type="standard_car" route="W_E" depart="281.0" departLane="free" departSpeed="10" />
    <vehicle id="N_S_49" type="standard_car" route="N_S" depart="281.0" departLane="free" departSpeed="10" />
    <vehicle id="W_S_50" type="standard_car" route="W_S" depart="287.0" departLane="free" departSpeed="10" />
    <vehicle id="W_E_51" type="standard_car" route="W_E" depart="291.0" departLane="free" departSpeed="10" />
    <vehicle id="E_S_52" type="standard_car" route="E_S" depart="291.0" departLane="free" departSpeed="10" />
    <vehicle id="W_E_53" type="standard_car" route="W_E" depart="292.0" departLane="free" departSpeed="10" />
    <vehicle id="E_W_54" type="standard_car" route="E_W" depart="297.0" departLane="free" departSpeed="10" />
    <vehicle id="S_N_55" type="standard_car" route="S_N" depart="305.0" departLane="free" departSpeed="10" />
    <vehicle id="S_N_56" type="standard_car" route="S_N" depart="308.0" departLane="free" departSpeed="10" />
    <vehicle id="S_N_57" type="standard_car" route="S_N" depart="313.0" departLane="free" departSpeed="10" />
    <vehicle id="E_W_58" type="standard_car" route="E_W" depart="319.0" departLane="free" departSpeed="10" />
    <vehicle id="S_N_59" type="standard_car" route="S_N" depart="320.0" departLane="free" departSpeed="10" />
    <vehicle id="E_W_60" type="standard_car" route="E_W" depart="320.0" departLane="free" departSpeed="10" />
    <vehicle id="W_E_61" type="standard_car" route="W_E" depart="324.0" departLane="free" departSpeed="10" />
    <vehicle id="S_N_62" type="standard_car" route="S_N" depart="327.0" departLane="free" departSpeed="10" />
    <vehicle id="W_E_63" type="standard_car" route="W_E" depart="333.0" departLane="free" departSpeed="10" />
    <vehicle id="W_E_64" type="standard_car" route="W_E" depart="336.0" departLane="free" departSpeed="10" />
    <vehicle id="W_N_65" type="standard_car" route="W_N" depart="337.0" departLane="free" departSpeed="10" />
    <vehicle id="S_N_66" type="standard_car" route="S_N" depart="344.0" departLane="free" departSpeed="10" />
    <vehicle id="W_E_67" type="standard_car" route="W_E" depart="346.0" departLane="free" departSpeed="10" />
    <vehicle id="E_W_68" type="standard_car" route="E_W" depart="346.0" departLane="free" departSpeed="10" />
    <vehicle id="E_W_69" type="standard_car" route="E_W" depart="348.0" departLane="free" departSpeed="10" />
    <vehicle id="N_S_70" type="standard_car" route="N_S" depart="350.0" departLane="free" departSpeed="10" />
    <vehicle id="N_S_71" type="standard_car" route="N_S" depart="358.0" departLane="free" departSpeed="10" />
    <vehicle id="E_W_72" type="standard_car" route="E_W" depart="368.0" departLane="free" departSpeed="10" />
    <vehicle id="N_S_73" type="standard_car" route="N_S" depart="371.0" departLane="free" departSpeed="10" />
    <vehicle id="S_N_74" type="standard_car" route="S_N" depart="372.0" departLane="free" departSpeed="10" />
    <vehicle id="N_S_75" type="standard_car" route="N_S" depart="374.0" departLane="free" departSpeed="10" />
    <vehicle id="E_W_76" type="standard_car" route="E_W" depart="374.0" departLane="free" departSpeed="10" />
    <vehicle id="N_E_77" type="standard_car" route="N_E" depart="376.0" departLane="free" departSpeed="10" />
    <vehicle id="E_N_78" type="standard_car" route="E_N" depart="379.0" departLane="free" departSpeed="10" />
    <vehicle id="W_E_79" type="standard_car" route="W_E" depart="382.0" departLane="free" departSpeed="10" />
    <vehicle id="E_W_80" type="standard_car" route="E_W" depart="387.0" departLane="free" departSpeed="10" />
    <vehicle id="E_W_81" type="standard_car" route="E_W" depart="388.0" departLane="free" departSpeed="10" />
    <vehicle id="N_S_82" type="standard_car" route="N_S" depart="391.0" departLane="free" departSpeed="10" />
    <vehicle id="S_N_83" type="standard_car" route="S_N" depart="393.0" departLane="free" departSpeed="10" />
    <vehicle id="S_N_84" type="standard_car" route="S_N" depart="403.0" departLane="free" departSpeed="10" />
    <vehicle id="E_W_85" type="standard_car" route="E_W" depart="405.0" departLane="free" departSpeed="10" />
    <vehicle id="N_W_86" type="standard_car" route="N_W" depart="411.0" departLane="free" departSpeed="10" />
    <vehicle id="S_N_87" type="standard_car" route="S_N" depart="419.0" departLane="free" departSpeed="10" />
    <vehicle id="N_S_88" type="standard_car" route="N_S" depart="419.0" departLane="free" departSpeed="10" />
    <vehicle id="N_S_89" type="standard_car" route="N_S" depart="420.0" departLane="free" departSpeed="10" />
    <vehicle id="N_S_90" type="standard_car" route="N_S" depart="420.0" departLane="free" departSpeed="10" />
    <vehicle id="E_W_91" type="standard_car" route="E_W" depart="422.0" departLane="free" departSpeed="10" />
    <vehicle id="E_N_92" type="standard_car" route="E_N" depart="424.0" departLane="free" departSpeed="10" />
    <vehicle id="W_E_93" type="standard_car" route="W_E" depart="429.0" departLane="free" departSpeed="10" />
    <vehicle id="W_E_94" type="standard_car" route="W_E" depart="429.0" departLane="free" departSpeed="10" />
    <vehicle id="E_W_95" type="standard_car" route="E_W" depart="431.0" departLane="free" departSpeed="10" />
    <vehicle id="E_W_96" type="standard_car" route="E_W" depart="435.0" departLane="free" departSpeed="10" />
    <vehicle id="N_S_97" type="standard_car" route="N_S" depart="437.0" departLane="free" departSpeed="10" />
    <vehicle id="W_E_98" type="standard_car" route="W_E" depart="438.0" departLane="free" departSpeed="10" />
    <vehicle id="W_S_99" type="standard_car" route="W_S" depart="440.0" departLane="free" departSpeed="10" />
    <vehicle id="E_S_100" type="standard_car" route="E_S" depart="440.0" departLane="free" departSpeed="10" />
    <vehicle id="N_S_101" type="standard_car" route="N_S" depart="442.0" departLane="free" departSpeed="10" />
    <vehicle id="N_S_102" type="standard_car" route="N_S" depart="445.0" departLane="free" departSpeed="10" />
    <vehicle id="S_E_103" type="standard_car" route="S_E" depart="446.0" departLane="free" departSpeed="10" />
    <vehicle id="W_N_104" type="standard_car" route="W_N" depart="447.0" departLane="free" departSpeed="10" />
    <vehicle id="E_W_105" type="standard_car" route="E_W" depart="447.0" departLane="free" departSpeed="10" />
    <vehicle id="S_N_106" type="standard_car" route="S_N" depart="449.0" departLane="free" departSpeed="10" />
    <vehicle id="S_W_107" type="standard_car" route="S_W" depart="449.0" departLane="free" departSpeed="10" />
    <vehicle id="S_N_108" type="standard_car" route="S_N" depart="459.0" departLane="free" departSpeed="10" />
    <vehicle id="N_S_109" type="standard_car" route="N_S" depart="466.0" departLane="free" departSpeed="10" />
    <vehicle id="W_E_110" type="standard_car" route="W_E" depart="469.0" departLane="free" departSpeed="10" />
    <vehicle id="W_E_111" type="standard_car" route="W_E" depart="469.0" departLane="free" departSpeed="10" />
    <vehicle id="E_W_112" type="standard_car" route="E_W" depart="472.0" departLane="free" departSpeed="10" />
    <vehicle id="E_W_113" type="standard_car" route="E_W" depart="472.0" departLane="free" departSpeed="10" />
    <vehicle id="S_N_114" type="standard_car" route="S_N" depart="475.0" departLane="free" departSpeed="10" />
    <vehicle id="W_S_115" type="standard_car" route="W_S" depart="477.0" departLane="free" departSpeed="10" />
    <vehicle id="N_S_116" type="standard_car" route="N_S" depart="478.0" departLane="free" departSpeed="10" />
    <vehicle id="S_E_117" type="standard_car" route="S_E" depart="481.0" departLane="free" departSpeed="10" />
    <vehicle id="E_W_118" type="standard_car" route="E_W" depart="483.0" departLane="free" departSpeed="10" />
    <vehicle id="N_S_119" type="standard_car" route="N_S" depart="485.0" departLane="free" departSpeed="10" />
    <vehicle id="S_N_120" type="standard_car" route="S_N" depart="485.0" departLane="free" departSpeed="10" />
    <vehicle id="E_W_121" type="standard_car" route="E_W" depart="487.0" departLane="free" departSpeed="10" />
    <vehicle id="W_N_122" type="standard_car" route="W_N" depart="489.0" departLane="free" departSpeed="10" />
    <vehicle id="W_S_123" type="standard_car" route="W_S" depart="490.0" departLane="free" departSpeed="10" />
    <vehicle id="S_N_124" type="standard_car" route="S_N" depart="491.0" departLane="free" departSpeed="10" />
    <vehicle id="W_S_125" type="standard_car" route="W_S" depart="492.0" departLane="free" departSpeed="10" />
    <vehicle id="S_W_126" type="standard_car" route="S_W" depart="494.0" departLane="free" departSpeed="10" />
    <vehicle id="N_E_127" type="standard_car" route="N_E" depart="499.0" departLane="free" departSpeed="10" />
    <vehicle id="E_S_128" type="standard_car" route="E_S" depart="500.0" departLane="free" departSpeed="10" />
    <vehicle id="E_W_129" type="standard_car" route="E_W" depart="501.0" departLane="free" departSpeed="10" />
    <vehicle id="W_E_130" type="standard_car" route="W_E" depart="501.0" departLane="free" departSpeed="10" />
    <vehicle id="E_S_131" type="standard_car" route="E_S" depart="502.0" departLane="free" departSpeed="10" />
    <vehicle id="W_E_132" type="standard_car" route="W_E" depart="504.0" departLane="free" departSpeed="10" />
    <vehicle id="E_W_133" type="standard_car" route="E_W" depart="505.0" departLane="free" departSpeed="10" />
    <vehicle id="S_N_134" type="standard_car" route="S_N" depart="510.0" departLane="free" departSpeed="10" />
    <vehicle id="N_S_135" type="standard_car" route="N_S" depart="512.0" departLane="free" departSpeed="10" />
    <vehicle id="W_S_136" type="standard_car" route="W_S" depart="514.0" departLane="free" departSpeed="10" />
    <vehicle id="S_N_137" type="standard_car" route="S_N" depart="517.0" departLane="free" departSpeed="10" />
    <vehicle id="W_S_138" type="standard_car" route="W_S" depart="518.0" departLane="free" departSpeed="10" />
    <vehicle id="N_S_139" type="standard_car" route="N_S" depart="518.0" departLane="free" departSpeed="10" />
    <vehicle id="W_E_140" type="standard_car" route="W_E" depart="521.0" departLane="free" departSpeed="10" />
    <vehicle id="S_N_141" type="standard_car" route="S_N" depart="522.0" departLane="free" departSpeed="10" />
    <vehicle id="E_W_142" type="standard_car" route="E_W" depart="525.0" departLane="free" departSpeed="10" />
    <vehicle id="E_W_143" type="standard_car" route="E_W" depart="527.0" departLane="free" departSpeed="10" />
    <vehicle id="S_N_144" type="standard_car" route="S_N" depart="527.0" departLane="free" departSpeed="10" />
    <vehicle id="W_E_145" type="standard_car" route="W_E" depart="527.0" departLane="free" departSpeed="10" />
    <vehicle id="W_E_146" type="standard_car" route="W_E" depart="536.0" departLane="free" departSpeed="10" />
    <vehicle id="N_S_147" type="standard_car" route="N_S" depart="545.0" departLane="free" departSpeed="10" />
    <vehicle id="N_S_148" type="standard_car" route="N_S" depart="549.0" departLane="free" departSpeed="10" />
    <vehicle id="W_E_149" type="standard_car" route="W_E" depart="549.0" departLane="free" departSpeed="10" />
    <vehicle id="S_N_150" type="standard_car" route="S_N" depart="553.0" departLane="free" departSpeed="10" />
    <vehicle id="N_S_151" type="standard_car" route="N_S" depart="559.0" departLane="free" departSpeed="10" />
    <vehicle id="S_N_152" type="standard_car" route="S_N" depart="561.0" departLane="free" departSpeed="10" />
    <vehicle id="S_N_153" type="standard_car" route="S_N" depart="563.0" departLane="free" departSpeed="10" />
    <vehicle id="W_E_154" type="standard_car" route="W_E" depart="564.0" departLane="free" departSpeed="10" />
    <vehicle id="E_S_155" type="standard_car" route="E_S" depart="565.0" departLane="free" departSpeed="10" />
    <vehicle id="W_S_156" type="standard_car" route="W_S" depart="566.0" departLane="free" departSpeed="10" />
    <vehicle id="E_W_157" type="standard_car" route="E_W" depart="568.0" departLane="free" departSpeed="10" />
    <vehicle id="N_W_158" type="standard_car" route="N_W" depart="568.0" departLane="free" departSpeed="10" />
    <vehicle id="S_N_159" type="standard_car" route="S_N" depart="568.0" departLane="free" departSpeed="10" />
    <vehicle id="W_E_160" type="standard_car" route="W_E" depart="571.0" departLane="free" departSpeed="10" />
    <vehicle id="E_W_161" type="standard_car" route="E_W" depart="571.0" departLane="free" departSpeed="10" />
    <vehicle id="E_W_162" type="standard_car" route="E_W" depart="575.0" departLane="free" departSpeed="10" />
    <vehicle id="N_S_163" type="standard_car" route="N_S" depart="576.0" departLane="free" departSpeed="10" />
    <vehicle id="S_N_164" type="standard_car" route="S_N" depart="578.0" departLane="free" departSpeed="10" />
    <vehicle id="W_E_165" type="standard_car" route="W_E" depart="578.0" departLane="free" departSpeed="10" />
    <vehicle id="S_N_166" type="standard_car" route="S_N" depart="578.0" departLane="free" departSpeed="10" />
    <vehicle id="S_W_167" type="standard_car" route="S_W" depart="580.0" departLane="free" departSpeed="10" />
    <vehicle id="E_W_168" type="standard_car" route="E_W" depart="580.0" departLane="free" departSpeed="10" />
    <vehicle id="E_S_169" type="standard_car" route="E_S" depart="581.0" departLane="free" departSpeed="10" />
    <vehicle id="E_N_170" type="standard_car" route="E_N" depart="584.0" departLane="free" departSpeed="10" />
    <vehicle id="W_S_171" type="standard_car" route="W_S" depart="584.0" departLane="free" departSpeed="10" />
    <vehicle id="W_N_172" type="standard_car" route="W_N" depart="585.0" departLane="free" departSpeed="10" />
    <vehicle id="N_W_173" type="standard_car" route="N_W" depart="586.0" departLane="free" departSpeed="10" />
    <vehicle id="S_E_174" type="standard_car" route="S_E" depart="586.0" departLane="free" departSpeed="10" />
    <vehicle id="N_E_175" type="standard_car" route="N_E" depart="588.0" departLane="free" departSpeed="10" />
    <vehicle id="W_E_176" type="standard_car" route="W_E" depart="588.0" departLane="free" departSpeed="10" />
    <vehicle id="W_E_177" type="standard_car" route="W_E" depart="589.0" departLane="free" departSpeed="10" />
    <vehicle id="W_E_178" type="standard_car" route="W_E" depart="590.0" departLane="free" departSpeed="10" />
    <vehicle id="S_N_179" type="standard_car" route="S_N" depart="590.0" departLane="free" departSpeed="10" />
    <vehicle id="S_N_180" type="standard_car" route="S_N" depart="593.0" departLane="free" departSpeed="10" />
    <vehicle id="E_W_181" type="standard_car" route="E_W" depart="595.0" departLane="free" departSpeed="10" />
    <vehicle id="N_E_182" type="standard_car" route="N_E" depart="596.0" departLane="free" departSpeed="10" />
    <vehicle id="W_S_183" type="standard_car" route="W_S" depart="600.0" departLane="free" departSpeed="10" />
    <vehicle id="N_S_184" type="standard_car" route="N_S" depart="600.0" departLane="free" departSpeed="10" />
    <vehicle id="E_N_185" type="standard_car" route="E_N" depart="605.0" departLane="free" departSpeed="10" />
    <vehicle id="S_N_186" type="standard_car" route="S_N" depart="605.0" departLane="free" departSpeed="10" />
    <vehicle id="E_N_187" type="standard_car" route="E_N" depart="606.0" departLane="free" departSpeed="10" />
    <vehicle id="W_E_188" type="standard_car" route="W_E" depart="609.0" departLane="free" departSpeed="10" />
    <vehicle id="E_W_189" type="standard_car" route="E_W" depart="610.0" departLane="free" departSpeed="10" />
    <vehicle id="N_S_190" type="standard_car" route="N_S" depart="611.0" departLane="free" departSpeed="10" />
    <vehicle id="E_W_191" type="standard_car" route="E_W" depart="611.0" departLane="free" departSpeed="10" />
    <vehicle id="N_S_192" type="standard_car" route="N_S" depart="612.0" departLane="free" departSpeed="10" />
    <vehicle id="S_N_193" type="standard_car" route="S_N" depart="615.0" departLane="free" departSpeed="10" />
    <vehicle id="W_E_194" type="standard_car" route="W_E" depart="616.0" departLane="free" departSpeed="10" />
    <vehicle id="E_N_195" type="standard_car" route="E_N" depart="618.0" departLane="free" departSpeed="10" />
    <vehicle id="W_E_196" type="standard_car" route="W_E" depart="619.0" departLane="free" departSpeed="10" />
    <vehicle id="N_S_197" type="standard_car" route="N_S" depart="629.0" departLane="free" departSpeed="10" />
    <vehicle id="E_W_198" type="standard_car" route="E_W" depart="629.0" departLane="free" departSpeed="10" />
    <vehicle id="S_N_199" type="standard_car" route="S_N" depart="630.0" departLane="free" departSpeed="10" />
    <vehicle id="N_W_200" type="standard_car" route="N_W" depart="630.0" departLane="free" departSpeed="10" />
    <vehicle id="E_W_201" type="standard_car" route="E_W" depart="630.0" departLane="free" departSpeed="10" />
    <vehicle id="N_S_202" type="standard_car" route="N_S" depart="631.0" departLane="free" departSpeed="10" />
    <vehicle id="E_W_203" type="standard_car" route="E_W" depart="634.0" departLane="free" departSpeed="10" />
    <vehicle id="E_W_204" type="standard_car" route="E_W" depart="636.0" departLane="free" departSpeed="10" />
    <vehicle id="N_W_205" type="standard_car" route="N_W" depart="637.0" departLane="free" departSpeed="10" />
    <vehicle id="S_N_206" type="standard_car" route="S_N" depart="641.0" departLane="free" departSpeed="10" />
    <vehicle id="S_N_207" type="standard_car" route="S_N" depart="643.0" departLane="free" departSpeed="10" />
    <vehicle id="W_E_208" type="standard_car" route="W_E" depart="643.0" departLane="free" departSpeed="10" />
    <vehicle id="W_N_209" type="standard_car" route="W_N" depart="643.0" departLane="free" departSpeed="10" />
    <vehicle id="N_S_210" type="standard_car" route="N_S" depart="645.0" departLane="free" departSpeed="10" />
    <vehicle id="E_W_211" type="standard_car" route="E_W" depart="645.0" departLane="free" departSpeed="10" />
    <vehicle id="E_W_212" type="standard_car" route="E_W" depart="648.0" departLane="free" departSpeed="10" />
    <vehicle id="S_N_213" type="standard_car" route="S_N" depart="649.0" departLane="free" departSpeed="10" />
    <vehicle id="W_E_214" type="standard_car" route="W_E" depart="649.0" departLane="free" departSpeed="10" />
    <vehicle id="E_W_215" type="standard_car" route="E_W" depart="650.0" departLane="free" departSpeed="10" />
    <vehicle id="N_S_216" type="standard_car" route="N_S" depart="652.0" departLane="free" departSpeed="10" />
    <vehicle id="N_S_217" type="standard_car" route="N_S" depart="653.0" departLane="free" departSpeed="10" />
    <vehicle id="W_E_218" type="standard_car" route="W_E" depart="654.0" departLane="free" departSpeed="10" />
    <vehicle id="E_W_219" type="standard_car" route="E_W" depart="654.0" departLane="free" departSpeed="10" />
    <vehicle id="S_E_220" type="standard_car" route="S_E" depart="655.0" departLane="free" departSpeed="10" />
    <vehicle id="W_N_221" type="standard_car" route="W_N" depart="657.0" departLane="free" departSpeed="10" />
    <vehicle id="E_W_222" type="standard_car" route="E_W" depart="659.0" departLane="free" departSpeed="10" />
    <vehicle id="N_S_223" type="standard_car" route="N_S" depart="660.0" departLane="free" departSpeed="10" />
    <vehicle id="W_E_224" type="standard_car" route="W_E" depart="661.0" departLane="free" departSpeed="10" />
    <vehicle id="W_E_225" type="standard_car" route="W_E" depart="662.0" departLane="free" departSpeed="10" />
    <vehicle id="E_N_226" type="standard_car" route="E_N" depart="664.0" departLane="free" departSpeed="10" />
    <vehicle id="N_S_227" type="standard_car" route="N_S" depart="666.0" departLane="free" departSpeed="10" />
    <vehicle id="W_E_228" type="standard_car" route="W_E" depart="668.0" departLane="free" departSpeed="10" />
    <vehicle id="E_W_229" type="standard_car" route="E_W" depart="668.0" departLane="free" departSpeed="10" />
    <vehicle id="E_W_230" type="standard_car" route="E_W" depart="671.0" departLane="free" departSpeed="10" />
    <vehicle id="S_N_231" type="standard_car" route="S_N" depart="672.0" departLane="free" departSpeed="10" />
    <vehicle id="S_N_232" type="standard_car" route="S_N" depart="672.0" departLane="free" departSpeed="10" />
    <vehicle id="N_S_233" type="standard_car" route="N_S" depart="673.0" departLane="free" departSpeed="10" />
    <vehicle id="N_S_234" type="standard_car" route="N_S" depart="682.0" departLane="free" departSpeed="10" />
    <vehicle id="W_E_235" type="standard_car" route="W_E" depart="684.0" departLane="free" departSpeed="10" />
    <vehicle id="S_E_236" type="standard_car" route="S_E" depart="684.0" departLane="free" departSpeed="10" />
    <vehicle id="W_E_237" type="standard_car" route="W_E" depart="689.0" departLane="free" departSpeed="10" />
    <vehicle id="W_E_238" type="standard_car" route="W_E" depart="692.0" departLane="free" departSpeed="10" />
    <vehicle id="W_E_239" type="standard_car" route="W_E" depart="693.0" departLane="free" departSpeed="10" />
    <vehicle id="S_N_240" type="standard_car" route="S_N" depart="695.0" departLane="free" departSpeed="10" />
    <vehicle id="S_N_241" type="standard_car" route="S_N" depart="697.0" departLane="free" departSpeed="10" />
    <vehicle id="E_W_242" type="standard_car" route="E_W" depart="698.0" departLane="free" departSpeed="10" />
    <vehicle id="W_N_243" type="standard_car" route="W_N" depart="699.0" departLane="free" departSpeed="10" />
    <vehicle id="E_W_244" type="standard_car" route="E_W" depart="700.0" departLane="free" departSpeed="10" />
    <vehicle id="S_N_245" type="standard_car" route="S_N" depart="705.0" departLane="free" departSpeed="10" />
    <vehicle id="N_S_246" type="standard_car" route="N_S" depart="710.0" departLane="free" departSpeed="10" />
    <vehicle id="S_N_247" type="standard_car" route="S_N" depart="711.0" departLane="free" departSpeed="10" />
    <vehicle id="N_S_248" type="standard_car" route="N_S" depart="713.0" departLane="free" departSpeed="10" />
    <vehicle id="E_W_249" type="standard_car" route="E_W" depart="716.0" departLane="free" departSpeed="10" />
    <vehicle id="W_E_250" type="standard_car" route="W_E" depart="717.0" departLane="free" departSpeed="10" />
    <vehicle id="W_E_251" type="standard_car" route="W_E" depart="717.0" departLane="free" departSpeed="10" />
    <vehicle id="N_E_252" type="standard_car" route="N_E" depart="717.0" departLane="free" departSpeed="10" />
    <vehicle id="E_S_253" type="standard_car" route="E_S" depart="718.0" departLane="free" departSpeed="10" />
    <vehicle id="S_N_254" type="standard_car" route="S_N" depart="718.0" departLane="free" departSpeed="10" />
    <vehicle id="E_S_255" type="standard_car" route="E_S" depart="726.0" departLane="free" departSpeed="10" />
    <vehicle id="N_S_256" type="standard_car" route="N_S" depart="728.0" departLane="free" departSpeed="10" />
    <vehicle id="N_S_257" type="standard_car" route="N_S" depart="729.0" departLane="free" departSpeed="10" />
    <vehicle id="N_S_258" type="standard_car" route="N_S" depart="729.0" departLane="free" departSpeed="10" />
    <vehicle id="E_S_259" type="standard_car" route="E_S" depart="737.0" departLane="free" departSpeed="10" />
    <vehicle id="S_N_260" type="standard_car" route="S_N" depart="738.0" departLane="free" departSpeed="10" />
    <vehicle id="E_W_261" type="standard_car" route="E_W" depart="738.0" departLane="free" departSpeed="10" />
    <vehicle id="W_N_262" type="standard_car" route="W_N" depart="738.0" departLane="free" departSpeed="10" />
    <vehicle id="W_E_263" type="standard_car" route="W_E" depart="743.0" departLane="free" departSpeed="10" />